*SOILS: IRRI

! Experiment  : Parameter values derived by Wopereis, as reported in *
! Wopereis MCS, Bouman BAM, Tuong TP, Berge HFM ten, Kropff MJ. 1996,*
! ORYZA_W: Rice growth model for irrigated and rainfed environments. *
! SARP Research Proceedings. IRRI/AB-DLO, Wageningen, The Netherlands*
! Data on page 151.                                                  *
*IRRI920001  IRRI      -99       211 IRRI lowland farm
@SITE        COUNTRY          LAT     LONG SCS FAMILY
 LosBanos    Phillipines   29.551  -82.517 Generic
@ SCOM  SALB  SLU1  SLDR  SLRO  SLNF  SLPF  SMHB  SMPX  SMKE
   -99  0.13   -99  3.00    61  1.00  1.00   -99   -99   -99
@  SLB  SLMH  SLLL  SDUL  SSAT  SRGF  SSKS  SBDM  SLOC  SLCL  SLSI  SLCF  SLNI  SLHW  SLHB  SCEC  SADC
     5   -99  0.21  0.48  0.52  1.00   5.3  1.18  5.40    55    37   -99  0.48   -99   -99   -99   -99
    10   -99  0.21  0.48  0.52  1.00   5.3  1.18  5.40    55    37   -99  0.48   -99   -99   -99   -99
    15   -99  0.21  0.48  0.52  1.00  .013  1.18  3.40    55    37   -99  0.32   -99   -99   -99   -99
    20   -99  0.21  0.47  0.55  0.88  1.45  1.43  6.80    55    37   -99  0.64   -99   -99   -99   -99
    25   -99  0.21  0.47  0.55  0.76  1.45  1.27  1.36    53    37   -99  0.13   -99   -99   -99   -99
    30   -99  0.21  0.47  0.55  0.64  1.45  1.31  0.41     5    37   -99  0.04   -99   -99   -99   -99
    40   -99  0.21  0.52  0.61  0.52  4.29  1.38  0.02    45    37   -99  .002   -99   -99   -99   -99
    60   -99  0.21  0.52  0.61  0.35  4.29  1.38 0.001    45    37   -99  0.00   -99   -99   -99   -99
    80   -99  0.21  0.58  0.64  0.28  1.75  1.38  0.00    45    37   -99  0.00   -99   -99   -99   -99