*SOILS: IRRI

*IRRI920001  IRRI      -99       211 IRRI lowland farm
@SITE        COUNTRY          LAT     LONG SCS FAMILY
 LosBanos    Phillipines   29.551  -82.517 Generic
! Experiment  : Parameter values derived by Wopereis, as reported in *
! Wopereis MCS, Bouman BAM, Tuong TP, Berge HFM ten, Kropff MJ. 1996,*
! ORYZA_W: Rice growth model for irrigated and rainfed environments. *
! SARP Research Proceedings. IRRI/AB-DLO, Wageningen, The Netherlands*
! Data on page 151.                                                  *
@ SCOM  SALB  SLU1  SLDR  SLRO  SLNF  SLPF  SMHB  SMPX  SMKE
   -99  0.13   -99  3.00    61  1.00  1.00   -99   -99   -99
@  SLB  SLMH  SLLL  SDUL  SSAT  SRGF  SSKS  SBDM  SLOC  SLCL  SLSI  SLCF  SLNI  SLHW  SLHB  SCEC  SADC
     5   -99  0.21  0.48  0.52  1.00   5.3  1.18  5.40    55    37   -99  0.48   -99   -99   -99   -99
    10   -99  0.21  0.48  0.52  1.00   5.3  1.18  5.40    55    37   -99  0.48   -99   -99   -99   -99
    15   -99  0.21  0.48  0.52  1.00  .013  1.18  3.40    55    37   -99  0.32   -99   -99   -99   -99
    20   -99  0.21  0.47  0.55  0.88  1.45  1.43  6.80    55    37   -99  0.64   -99   -99   -99   -99
    25   -99  0.21  0.47  0.55  0.76  1.45  1.27  1.36    53    37   -99  0.13   -99   -99   -99   -99
    30   -99  0.21  0.47  0.55  0.64  1.45  1.31  0.41     5    37   -99  0.04   -99   -99   -99   -99
    40   -99  0.21  0.52  0.61  0.52  4.29  1.38  0.02    45    37   -99  .002   -99   -99   -99   -99
    60   -99  0.21  0.52  0.61  0.35  4.29  1.38 0.001    45    37   -99  0.00   -99   -99   -99   -99
    80   -99  0.21  0.58  0.64  0.28  1.75  1.38  0.00    45    37   -99  0.00   -99   -99   -99   -99
@  SLB  SLPX  SLPT  SLPO CACO3  SLAL  SLFE  SLMN  SLBS  SLPA  SLPB  SLKE  SLMG  SLNA  SLSU  SLEC  SLCA
     5 -99.0 -99.0 -99.0 -99.0 -99.0 -99.0 -99.0 -99.0 -99.0 -99.0   -99  -99. -99.0 -99.0 -99.0  -99.
    10 -99.0 -99.0 -99.0 -99.0 -99.0 -99.0 -99.0 -99.0 -99.0 -99.0   -99  -99. -99.0 -99.0 -99.0  -99.
    15 -99.0 -99.0 -99.0 -99.0 -99.0 -99.0 -99.0 -99.0 -99.0 -99.0   -99  -99. -99.0 -99.0 -99.0  -99.
    20 -99.0 -99.0 -99.0 -99.0 -99.0 -99.0 -99.0 -99.0 -99.0 -99.0   -99  -99. -99.0 -99.0 -99.0  -99.
    25 -99.0 -99.0 -99.0 -99.0 -99.0 -99.0 -99.0 -99.0 -99.0 -99.0   -99  -99. -99.0 -99.0 -99.0  -99.
    30 -99.0 -99.0 -99.0 -99.0 -99.0 -99.0 -99.0 -99.0 -99.0 -99.0   -99  -99. -99.0 -99.0 -99.0  -99.
    40 -99.0 -99.0 -99.0 -99.0 -99.0 -99.0 -99.0 -99.0 -99.0 -99.0   -99  -99. -99.0 -99.0 -99.0  -99.
    60 -99.0 -99.0 -99.0 -99.0 -99.0 -99.0 -99.0 -99.0 -99.0 -99.0   -99  -99. -99.0 -99.0 -99.0  -99.
    80 -99.0 -99.0 -99.0 -99.0 -99.0 -99.0 -99.0 -99.0 -99.0 -99.0   -99  -99. -99.0 -99.0 -99.0  -99.
@  SLB ALFVG   MVG   NVG WCRES
     5 0.127  -6.2 1.119  0.01
    10 0.127  -6.2 1.119  0.01
    15 0.127  -6.2 1.119  0.01
    20 0.047  -6.0 1.095  0.01
    25 0.047  -6.0 1.095  0.01
    30 0.047  -6.0 1.095  0.01
    40 0.078  -4.9 1.076  0.01
    60 0.078  -1.9 1.076  0.01
    80 0.032 -11.1 1.073  0.01


*IB00000005  IBSNAT      SIL     150 DEFAULT - MEDIUM SILTY LOAM
@SITE        COUNTRY          LAT     LONG SCS FAMILY
 Generic     Generic           -99    -99  Generic
@ SCOM  SALB  SLU1  SLDR  SLRO  SLNF  SLPF  SMHB  SMPX  SMKE
   -99  0.12   6.0  0.30  79.0  1.00  1.00 IB001 IB001 IB001
@  SLB  SLMH  SLLL  SDUL  SSAT  SRGF  SSKS  SBDM  SLOC  SLCL  SLSI  SLCF  SLNI  SLHW  SLHB  SCEC  SADC
     5   -99 0.110 0.227 0.450 1.000   -99  1.37  1.16  10.0  60.0   0.0 0.120   6.5   -99   -99   -99
    15   -99 0.110 0.227 0.450 1.000   -99  1.37  1.16  10.0  60.0   0.0 0.120   6.5   -99   -99   -99
    30   -99 0.103 0.201 0.451 0.638   -99  1.37  1.10  10.0  60.0   0.0 0.110   6.5   -99   -99   -99
    45   -99 0.099 0.193 0.452 0.472   -99  1.37  0.97  10.0  60.0   0.0 0.100   6.5   -99   -99   -99
    60   -99 0.099 0.193 0.452 0.350   -99  1.37  0.97  10.0  60.0   0.0 0.100   6.5   -99   -99   -99
    90   -99 0.088 0.173 0.450 0.223   -99  1.38  0.72  10.0  60.0   0.0 0.070   6.5   -99   -99   -99
   120   -99 0.079 0.165 0.452 0.122   -99  1.38  0.43  10.0  60.0   0.0 0.040   6.5   -99   -99   -99
   150   -99 0.086 0.178 0.450 0.067   -99  1.39  0.20  10.0  60.0   0.0 0.020   6.5   -99   -99   -99


    kg/ha = kg/(10^8cm2)=g/(10^5cm2)
    if thickness=5cm, SOC=31831 * g/10^5/cm2/5cm=0.063662g/cm, BD=1.18g/cm3


* WL01 is FLOOD, I do not know where is FLOOD input in DSSAT
* NLPUD=3, Thus I set 3rd layer SRGF=0.001
* ZRTMS (Max rooting depth ) is 100cm. which is below our profile bottom, thus I ignore
* initial conditionm is as below
@C  ICBL  SH2O  SNH4  SNO3
 1     5  0.52  48.0   9.6
 1    10  0.52  48.0   9.6
 1    15  0.52  32.0   6.4
 1    20  0.47  64.0  12.8
 1    25  0.47  12.8   2.6
 1    30  0.47   3.8   0.8
 1    40  0.52   0.2  0.04
 1    60  0.52  0.01   0.0
 1    80  0.58  0.00   0.0





The following is PADDY.DAT - ORYZA soil input file for this experiment.

**********************************************************************
* Soil data file for PADDY soil water balance model.                 *
* File name   : PADDY.DAT                                            *
* Soil        : IRRI lowland farm, Los Banos, Philippines            *
* Experiment  : Parameter values derived by Wopereis, as reported in *
* Wopereis MCS, Bouman BAM, Tuong TP, Berge HFM ten, Kropff MJ. 1996,*
* ORYZA_W: Rice growth model for irrigated and rainfed environments. *
* SARP Research Proceedings. IRRI/AB-DLO, Wageningen, The Netherlands*
* Data on page 151.                                                  *
**********************************************************************

* Give code name of soil data file to match the water balance PADDY:
SCODE = 'PADDY'

*---------------------------------------------------------------*
* 1. Various soil and management parameters
*---------------------------------------------------------------*
WL0MX = 20.  ! Bund height (mm)
NL    = 9     ! Number of soil layers (maximum is 10) (-)
TKL   = 3*0.05, 3*0.05, 0.10, 0.20, 0.20 ! Thickness of each soil layer (m)
ZRTMS = 1.0   ! Maximum rooting depth in the soil (m)

*---------------------------------------------------------------*
* 2. Puddling switch: 1=PUDDLED or 0=NON PUDDLED
*---------------------------------------------------------------*
*SWITPD = 0 ! Non puddled
SWITPD = 1  ! Puddled

* If PUDDLED, supply parameters for puddled soil
NLPUD = 3 ! Number of puddled soil layers, including the plow sole (-)
          ! (NLPUD cannot exceed the total number of soil layers NL)
* Saturated volumetric water content of ripened (previously puddled)
* soil (m3 m-3), for each soil layer:
WCSTRP = 3*0.52, 3*0.55, 2*0.61, 0.64

* Soil water tension of puddled soil layer at which cracks reach
* break through the plow sole (pF):
PFCR = 6.0

*---------------------------------------------------------------*
* 3. Groundwater switch: 0=DEEP (i.e., not in profile), 1=DATA
* (supplied), 2=CALCULATE
*---------------------------------------------------------------*
SWITGW = 0 ! Deep groundwater
*SWITGW = 2 ! Calculate groundwater
*SWITGW = 1 ! Groundwater data

* If DATA, supply table of groundwater table depth (cm; Y-value)
* as function of calendar day (d; X value):
ZWTB =   1.,500.,
       366.,500.

* If CALCULATE, supply the following parameters:
ZWTBI = 500. ! Initial groundwater table depth (cm)
MINGW = 500. ! Minimum groundwater table depth (cm)
MAXGW = 500. ! Maximum groundwater table depth (cm)
ZWA   = 1.0  ! Receding rate of groundwater with no recharge (cm d-1)
ZWB   = 0.5  ! Sensitivity factor of groundwater recharge (-)

*---------------------------------------------------------------*
* 4. Percolation switch
* Value for SWITVP can not be 1 (CALCULATE) for nonpuddled soil
*---------------------------------------------------------------*
SWITVP = -1 ! Fixed percolation rate
*SWITVP = 0 ! Percolation as function of the groundwater depth
*SWITVP = 1 ! Calculate percolation

* If SWITVP = -1, supply fixed percolation rate (mm d-1):
FIXPERC = 10.0  !   3.0

* If SWITVP = 0, supply table of percolation rate (mm d-1; Y-value)
* as function of water table depth (cm; X value):
*PERTB =   0., 3.,
*         200., 3.

*---------------------------------------------------------------*
* 5. Conductivity switch: 0=NO DATA, 1=VAN GENUCHTEN or 2=POWER
*    function used
*---------------------------------------------------------------*
*SWITKH = 0 ! No data
*SWITKH = 2 ! Power
SWITKH  = 1 ! van Genuchten

*---------------------------------------------------------------*
* 6. Water retention switch: 0=DATA; 1=VAN GENUCHTEN. When DATA, data
* have to be supplied for saturation, field capacity,
* wilting point and at air dryness
*---------------------------------------------------------------*
*SWITPF = 0 ! Data
SWITPF  = 1 ! van Genuchten

*---------------------------------------------------------------*
*7.Soil physical properties, these parameters will be used when model
*runs under actual water or nitrogen condition, or even both. Otherwise
*these parameter will not be used.
CLAYX = 0.55,0.55,0.55,0.55,0.53,0.5,3*0.45      !soil clay contents, fraction
SANDX = 0.08,0.08,0.08,0.08,0.1,0.13,3*0.18      !soil sand contents, fraction
BD = 1.17894,1.17894,1.17911,1.42734,1.2695,1.31061,3*1.37562      !soil sand contents, fraction
*Soil organic carbon and nitrogen content in kg C or N/ha
SOC = 31831.64999,31831.64999,20044.87,48529.56,8632.66799,2673.6648,280.62648,28.063,2.8063
SON = 2829.48,2829.48,1886.576,4567.488,812.4864,251.639039,26.411903,2.64, 0.264
SNH4X = 28.295,28.295,18.87,45.67,8.12,2.50,0.26,0.026,0.00264
SNO3X = 5.66,5.66,3.774,9.134,1.624,0.5,0.052,0.0052,0.00052
*Fresh organic carbon and nitrogen
*FORGANC =
*FORGANN =
*FCarbonh =
*FCellulo =

*---------------------------------------------------------------*
* 7. Soil hydrological properties. Required type of data input
* according to setting of conductivity and water retention switch
*---------------------------------------------------------------*
* Saturated hydraulic conductivity, for each soil layer
* (cm d-1) (always required!):
KST = 2*127.0, 0.3, 3*35.0, 2*103.0, 42.0

* Saturated volumetric water content, for each soil layer
* (m3 m-3)(always required!):
WCST = 3*0.52, 3*0.55, 2*0.61, 0.64

* Van Genuchten parameters, for each soil layer
* (needed if SWITKH = 1 and/or SWITPF = 1):
VGA = 3*0.127, 3*0.047, 2*0.078, 0.032 ! a parameter (cm-1)
VGL = 3*-6.2, 3*-0.6, 2*-4.9, -11.1    ! l parameter (-)
VGN = 3*1.119, 3*1.095, 2*1.076, 1.073 ! n parameter (-)
VGR = 9*0.01                           ! residual water content (-)

* Power function parameters, for each soil layer (-)
* (needed if SWITKH = 2):
*PN = 3*-2.5, 3*-2.5, 2*-2.5, -2.5

* Volumetric water content at field capacity, for each soil layer
* (m3 m-3)(needed if SWITPF = 0):
*WCFC = 3*0.48, 3*0.47, 2*0.52, 0.58

* Volumetric water content at wilting point, for each soil layer
* (m3 m-3) (needed if SWITPF = 0):
*WCWP = 9*0.21

* Volumetric water content at air dryness, for each soil layer
* (m3 m-3) (needed if SWITPF = 0):
*WCAD = 9*0.01

*---------------------------------------------------------------*
* 8. Initialization conditions, and re-initialization
*---------------------------------------------------------------*
WL0I = 0.   ! Initial ponded water depth at start of simulation (mm)

* Initial volumetric water content at the start of simulation,
* for each soil layer (m3 m-3):
WCLI = 3*0.52, 3*0.47, 2*0.52, 0.58

* Initial ponded water depth and water contents may be reset:
* Ponded water depth: at minimum of WL0I and WL0MX
* Water contents in all soil layers: at saturation value
* For direct-seeded rice, this happens at sowing, for transplanted
* rice, this happens at transplanting
* Re-initialize switch RIWCLI is YES or NO
*RIWCLI = 'NO'
RIWCLI = 'YES'

*---------------------------------------------------------------*
* 9. Initialization of soil thermal conditions
*---------------------------------------------------------------*
SATAV = 25.0       !Soil annual avaerage temperature of the first layers
SOILT = 27.0, 25.0, 23.0, 21.0, 19.0, 4*17.0     !Initial soil temperature in each layer
*                  !Have to provide above either one and two of abov paremeter, otherwise,
*                  !model start the calculation of soil temperature at 0 degree

*---------------------------------------------------------------*
* 10. Observations/measurements
*    Switches to force observed water content in water balance
*---------------------------------------------------------------*

* WCL1_OBS, WCL2_OBS,...WCL10_OBS: Observed soil water contents
* in layer 1, 2, ..., 10. Format: year, day number, water content
* Not obligatory to give data

* Table for interpolation of water content between soil layers for
* those layers for which no observations were made: first number is
* the soil layer for which interpolation needs to be done, the second
* is the number of the underlying soil layer, the third is the number
* of the overlying soil layer. No interpolation is performed when all
* three numbers are the same:
WCLINT  = 1, 1, 1,
          2, 2, 2,
          3, 3, 3,
          4, 4, 4,
          5, 5, 5,
          6, 6, 6,
          7, 7, 7,
          8, 8, 8,
          9, 9, 9
